# This file contains metadata for your plugin.

# Mandatory items:
[general]
name=Mesh Tools
qgisMinimumVersion=3.16
qgisMaximumVersion=3.99
description=Tools for management of Data on mesh (Telemac, Uhaina).
version=0.8.3
author=Artelia
email=a@a

about=Tools for for management of Data using Mesh format :
      - Culvert Manager 
      - Sources Manager
      - Mesh Quality Analysis 
     Developed by Aurélien Perrin (Artelia), Nicolas Godet (ISL), 
        and Christophe Coulet (BRGM)

tracker=https://github.com/Artelia/mesh_tools/issues
repository=https://github.com/Artelia/mesh_tools
# End of mandatory metadata

# Recommended items:

hasProcessingProvider=no
# Uncomment the following line and add your changelog:
changelog=
   0.8.3 : Fix export source region (duplicated vertex)
           Fix Z culvert (wrong vertex index)
           Fix CIRC value (was '2' instead of '1')
   0.8.2 : Prevent analysis on non triangular mesh
   0.8.1 : Update translations
   0.8.0 : Add field "number_in_//" to culvert
           Improve mesh quality analysis 
   0.7.0 : Addition of Sources Manager tool
   0.6.0 : Link selected dataset in combobox to displayed dataset in canvas
           Try to autoselect bottom when changing mesh
           Fix culvert import
           Fix issue if a valid culvert becomes invalid
           Correctly update GUI
           Swapped return
   0.5.0 : the plugin was moved to the mesh menu
           New icon
           Change code structure  ( creation file grouping together useful functions, etc.)
           Import function of a file of existing works (TELEMAC only)
           French translation
           Addition of tooltips for the parameters of the works directly drawn from the Telemac doc
           Addition of the relaxation parameter
           Using QgsMapLayerComboBox to choose the mesh
   0.4.0 : Change plugin Name
           Change ui to add a software parameter for output
           Change culvert_manager to allow export capabilities for Uhaina
   0.3.0 : Restructuration of github folders 
   0.2.0 : add Mesh quality analysis (Qgis >= 3.22.0)



# Tags are comma separated with spaces allowed
tags=python, mesh, tool

homepage=https://github.com/Artelia/mesh_tools/wiki
category=Plugin
icon=icon.png

# experimental flag
experimental=True

# deprecated flag (applies to the whole plugin, not just a single version)
deprecated=False

Category of the plugin: Raster, Vector, Database or Web
# category=

# If the plugin can run on QGIS Server.
server=False

